CM Inverted-V, thick wire
CE
GW 1 3 -0.075 0 0 0.075 0 0 0.0025
GW 2 90 -0.075 0 0 -4.58993 0 -2.65 0.0025
GW 3 90 0.075 0 0 4.58993 0 -2.65 0.0025
GM 0 0 0 0 0 0 0 10 0
GE 1
EK 1
EX 0 1 1 0 1 0 0 0 0 0
GN 2 0 0 0 13 0.005 0 0 0 0
LD 5 0 0 0 3.77358e+07 0 0
FR 0 11 0 0 13.8 0.04
RP 0 19 73 0 0 0 5 5 0 0
EN
